LTspice 24.0.9 for Windows
Circuit: * C:\Users\bismi\OneDrive\Documents\Senior Design\Spice Models\555Timer.asc
Start Time: Mon Apr  7 17:21:28 2025
solver = Normal
Maximum thread count: 16
tnom = 27
temp = 27
method = modified trap
WARNING: Less than two connections to node nc_01.  This node is used by s:u1:1.
Direct Newton iteration for .op point succeeded.
Total elapsed time: 0.257 seconds.

