LTspice 24.0.9 for Windows
Circuit: * C:\Users\bismi\OneDrive\Documents\Senior Design\Spice Models\555Timer.asc
Start Time: Wed Apr  9 18:10:27 2025
solver = Normal
Maximum thread count: 16
tnom = 27
temp = 27
method = modified trap
c3: Increased Cpar to 1e-12
Direct Newton iteration for .op point succeeded.
Total elapsed time: 0.197 seconds.

