LTspice 24.0.9 for Windows
Circuit: * C:\Users\bismi\OneDrive\Documents\Senior Design\Spice Models\Amplifier.asc
Start Time: Wed Apr  9 15:43:02 2025
solver = Normal
Maximum thread count: 16
tnom = 27
temp = 27
method = modified trap
Direct Newton iteration failed to find .op point.  (Use ".option noopiter" to skip.)
Starting Gmin stepping
Gmin = 10
Gmin = 1.07374
vernier = 0.5
vernier = 0.25
vernier = 0.125
vernier = 0.0625
vernier = 0.03125
Gmin = 1.00965
vernier = 0.015625
vernier = 0.0078125
vernier = 0.00390625
vernier = 0.00195312
vernier = 0.000976562
Gmin = 1.0018
vernier = 0.000488281
Gmin = 0
Gmin stepping failed

Starting source stepping with srcstepmethod=0
Source Step = 3.0303%
vernier = 0.25
Source Step = 0.0828598%
Source Step = 0.201231%
Source Step = 0.319602%
Source Step = 0.437973%
Source Step = 0.556345%
vernier = 0.00585938
Source Step = 0.710227%
Source Step = 0.887784%
Source Step = 1.06534%
Source Step = 1.2429%
Source Step = 1.42045%
vernier = 0.00878906
Source Step = 1.6424%
Source Step = 1.90874%
Source Step = 2.17507%
Source Step = 2.44141%
Source Step = 2.70774%
vernier = 0.0131836
Source Step = 3.02734%
Source Step = 3.42685%
Source Step = 3.82635%
Source Step = 4.22585%
Source Step = 4.62536%
vernier = 0.0197754
Source Step = 5.08478%
Source Step = 5.68404%
Source Step = 6.28329%
Source Step = 6.88255%
Source Step = 7.4818%
vernier = 0.0296631
Source Step = 8.14098%
Source Step = 8.68031%
Source Step = 8.81514%
Source Step = 8.87132%
Source Step = 8.9275%
Source Step = 8.98368%
Source Step = 9.03986%
Source Step = 9.09604%
vernier = 0.00278091
Source Step = 9.16908%
Source Step = 9.25335%
Source Step = 9.33762%
Source Step = 9.42189%
Source Step = 9.50616%
vernier = 0.00417137
Source Step = 9.61149%
Source Step = 9.7379%
Source Step = 9.8643%
Source Step = 9.99071%
Source Step = 10.1171%
vernier = 0.00625706
Source Step = 10.2688%
Source Step = 10.4584%
Source Step = 10.648%
Source Step = 10.8376%
Source Step = 11.0272%
vernier = 0.00938559
Source Step = 11.2453%
Source Step = 11.5297%
Source Step = 11.8141%
Source Step = 12.0985%
Source Step = 12.3829%
vernier = 0.0140784
Source Step = 12.6958%
Source Step = 13.1224%
Source Step = 13.549%
Source Step = 13.9756%
Source Step = 14.4023%
vernier = 0.0211176
Source Step = 14.8502%
Source Step = 15.4901%
Source Step = 16.1301%
Source Step = 16.77%
Source Step = 17.4099%
Source Step = 18.0498%
vernier = 0.0316764
Source Step = 19.0097%
Source Step = 19.9696%
Source Step = 20.9295%
Source Step = 21.8894%
Source Step = 22.8493%
vernier = 0.0475145
Source Step = 24.2411%
Source Step = 25.681%
Source Step = 27.1208%
Source Step = 28.5606%
Source Step = 30.0005%
vernier = 0.0712718
Source Step = 32.0162%
Source Step = 34.176%
Source Step = 36.3357%
Source Step = 38.4955%
Source Step = 40.6552%
vernier = 0.106908
Source Step = 43.5709%
Source Step = 46.8105%
Source Step = 50.0501%
Source Step = 53.2898%
Source Step = 56.5294%
vernier = 0.160362
Source Step = 60.7409%
Source Step = 65.6004%
Source Step = 70.4598%
Source Step = 75.3192%
Source Step = 80.1787%
vernier = 0.240542
Source Step = 86.253%
Source Step = 92.2665%
vernier = 0.0150339
Source Step = 92.1071%
Source Step = 92.1356%
Source Step = 92.164%
Source Step = 92.1925%
Source Step = 92.221%
Source Step = 92.2494%
Source Step = 92.2779%
Source Step = 92.3064%
Source Step = 92.3349%
Source Step = 92.3633%
Source Step = 92.3918%
Source Step = 92.4203%
Source Step = 92.4488%
Source Step = 92.4772%
Source Step = 92.5057%
Source Step = 92.5342%
Source Step = 92.5627%
