LTspice 24.0.9 for Windows
Circuit: * C:\Users\bismi\OneDrive\Documents\LTspice\magmattic_science\SPICEV2\Amplifier.asc
Start Time: Sun Mar 30 00:08:44 2025
solver = Normal
Maximum thread count: 16
tnom = 27
temp = 27
method = modified trap
WARNING: Node N002 is floating.

Direct Newton iteration failed to find .op point.  (Use ".option noopiter" to skip.)
Starting Gmin stepping
Gmin = 10
Gmin = 1.07374
vernier = 0.5
vernier = 0.25
vernier = 0.125
vernier = 0.0625
vernier = 0.03125
Gmin = 1.00965
vernier = 0.015625
vernier = 0.0078125
vernier = 0.00390625
vernier = 0.00195312
vernier = 0.000976562
vernier = 0.000488281
Gmin = 1.00183
Gmin = 0
Gmin stepping failed

Starting source stepping with srcstepmethod=0
Source Step = 3.0303%
vernier = 0.25
Source Step = 0.378788%
Source Step = 0.852273%
Source Step = 1.32576%
Source Step = 1.79924%
Source Step = 2.27273%
vernier = 0.0234375
Source Step = 2.91193%
Source Step = 3.62216%
Source Step = 4.33239%
Source Step = 5.04261%
Source Step = 5.75284%
Source Step = 5.9881%
Source Step = 6.03249%
Source Step = 6.07688%
Source Step = 6.12127%
Source Step = 6.16566%
vernier = 0.00219727
Source Step = 6.21227%
Source Step = 6.27885%
Source Step = 6.34544%
Source Step = 6.41202%
Source Step = 6.4786%
Source Step = 6.54519%
vernier = 0.0032959
Source Step = 6.64506%
Source Step = 6.74494%
Source Step = 6.84482%
Source Step = 6.94469%
Source Step = 7.04457%
vernier = 0.00494385
Source Step = 7.18939%
Source Step = 7.3392%
Source Step = 7.48901%
Source Step = 7.63883%
Source Step = 7.78864%
vernier = 0.00741577
Source Step = 7.99838%
Source Step = 8.2231%
Source Step = 8.44782%
Source Step = 8.67254%
Source Step = 8.89726%
vernier = 0.0111237
Source Step = 9.20063%
Source Step = 9.53771%
Source Step = 9.87479%
Source Step = 10.2119%
Source Step = 10.549%
vernier = 0.0166855
Source Step = 10.9872%
Source Step = 11.4928%
Source Step = 11.9984%
Source Step = 12.504%
Source Step = 13.0096%
vernier = 0.0250282
Source Step = 13.6417%
Source Step = 14.4001%
Source Step = 15.1585%
Source Step = 15.917%
Source Step = 16.6754%
vernier = 0.0375423
Source Step = 17.5855%
Source Step = 18.7232%
Source Step = 19.8608%
Source Step = 20.9985%
Source Step = 22.1361%
vernier = 0.0563135
Source Step = 23.4444%
Source Step = 25.1509%
Source Step = 26.8573%
Source Step = 28.5638%
Source Step = 30.2703%
vernier = 0.0844703
Source Step = 32.1474%
Source Step = 34.7071%
Source Step = 37.2668%
Source Step = 39.8265%
Source Step = 42.3862%
vernier = 0.126705
Source Step = 45.0739%
Source Step = 48.9135%
Source Step = 50.4673%
Source Step = 50.5273%
Source Step = 50.5873%
Source Step = 50.6473%
Source Step = 50.7073%
Source Step = 50.7672%
vernier = 0.00296966
Source Step = 50.8572%
Source Step = 50.9472%
Source Step = 51.0372%
Source Step = 51.1272%
Source Step = 51.2172%
vernier = 0.00445449
Source Step = 51.3477%
Source Step = 51.4827%
Source Step = 51.6176%
Source Step = 51.7526%
Source Step = 51.8876%
vernier = 0.00668173
Source Step = 52.0766%
Source Step = 52.2791%
Source Step = 52.4815%
Source Step = 52.684%
Source Step = 52.8865%
vernier = 0.0100226
Source Step = 53.1598%
Source Step = 53.4636%
Source Step = 53.7673%
Source Step = 54.071%
Source Step = 54.3747%
vernier = 0.0150339
Source Step = 54.7695%
Source Step = 55.2251%
Source Step = 55.6807%
Source Step = 56.1363%
Source Step = 56.5918%
vernier = 0.0225508
Source Step = 57.1613%
Source Step = 57.8446%
Source Step = 58.528%
Source Step = 59.2114%
Source Step = 59.8947%
vernier = 0.0338263
Source Step = 60.7148%
Source Step = 61.7398%
Source Step = 62.5855%
Source Step = 62.6623%
Source Step = 62.7264%
Source Step = 62.7905%
Source Step = 62.8545%
Source Step = 62.9186%
vernier = 0.00317121
Source Step = 63.0051%
Source Step = 63.1012%
Source Step = 63.1973%
Source Step = 63.2934%
Source Step = 63.3895%
vernier = 0.00475682
Source Step = 63.5144%
Source Step = 63.6585%
Source Step = 63.8027%
Source Step = 63.9468%
Source Step = 64.091%
vernier = 0.00713523
Source Step = 64.2712%
Source Step = 64.4874%
Source Step = 64.7036%
Source Step = 64.9198%
Source Step = 65.136%
vernier = 0.0107028
Source Step = 65.3955%
Source Step = 65.7198%
Source Step = 66.0442%
Source Step = 66.3685%
Source Step = 66.6928%
vernier = 0.0160543
Source Step = 67.0658%
Source Step = 67.5523%
Source Step = 68.0388%
Source Step = 68.5253%
Source Step = 69.0118%
vernier = 0.0240814
Source Step = 69.5469%
Source Step = 70.2766%
Source Step = 71.0064%
Source Step = 71.7361%
Source Step = 72.4659%
vernier = 0.0361221
Source Step = 73.2321%
Source Step = 74.3267%
Source Step = 75.4213%
Source Step = 76.5159%
Source Step = 77.6105%
Source Step = 78.7051%
vernier = 0.0541831
Source Step = 80.347%
Source Step = 81.989%
Source Step = 83.6309%
Source Step = 85.2728%
Source Step = 86.9147%
vernier = 0.0812747
Source Step = 89.2955%
Source Step = 91.3273%
vernier = 0.00507967
Source Step = 91.3004%
Source Step = 91.3389%
Source Step = 91.3774%
Starting source stepping with srcstepmethod=1
Source Step = 3.0303%
vernier = 0.25
Source Step = 0.0828598%
Source Step = 0.201231%
Source Step = 0.319602%
Source Step = 0.437973%
Source Step = 0.556345%
vernier = 0.00585938
Source Step = 0.710227%
Source Step = 0.887784%
Source Step = 1.06534%
Source Step = 1.2429%
Source Step = 1.42045%
vernier = 0.00878906
Source Step = 1.6424%
Source Step = 1.90874%
Source Step = 2.17507%
Source Step = 2.44141%
Source Step = 2.70774%
vernier = 0.0131836
Source Step = 3.02734%
Source Step = 3.42685%
Source Step = 3.82635%
Source Step = 4.22585%
Source Step = 4.62536%
vernier = 0.0197754
Source Step = 5.08478%
Source Step = 5.68404%
Source Step = 6.28329%
Source Step = 6.88255%
Source Step = 7.4818%
vernier = 0.0296631
Source Step = 8.14098%
Source Step = 9.03986%
Source Step = 9.93874%
Source Step = 10.8376%
Source Step = 11.7365%
vernier = 0.0444946
Source Step = 12.6803%
Source Step = 14.0287%
Source Step = 15.377%
Source Step = 16.7253%
Source Step = 18.0736%
Source Step = 19.4219%
vernier = 0.0667419
Source Step = 21.4444%
Source Step = 23.4669%
Source Step = 25.4894%
Source Step = 27.5119%
Source Step = 29.5344%
vernier = 0.100113
Source Step = 32.467%
Source Step = 35.5007%
Source Step = 38.5344%
Source Step = 41.5681%
Source Step = 44.6019%
vernier = 0.150169
Source Step = 48.8491%
Source Step = 53.3997%
Source Step = 57.9502%
Source Step = 62.5008%
Source Step = 67.0514%
vernier = 0.225254
Source Step = 73.1947%
Source Step = 80.0206%
Source Step = 86.8465%
Source Step = 90.2621%
Source stepping failed

Pseudo Transient succeeded in finding the operating point at 23.8976 s.
Heightened Def Con from 0.139265 to 0.139265
Total elapsed time: 46.395 seconds.

