LTspice 24.0.9 for Windows
Circuit: * C:\Users\bismi\OneDrive\Documents\Senior Design\Spice Models\Draft3.asc
Start Time: Mon Apr  7 14:06:37 2025
solver = Normal
Maximum thread count: 16
tnom = 27
temp = 27
method = modified trap
WARNING: Less than two connections to node x1:nc_01.  This node is used by s:x1:u1:1.
Direct Newton iteration for .op point succeeded.
Total elapsed time: 0.238 seconds.

