LTspice 24.0.9 for Windows
Circuit: * C:\Users\bismi\OneDrive\Documents\Senior Design\Spice Models\WPT.asc
Start Time: Wed Apr  9 18:18:15 2025
solver = Normal
Maximum thread count: 16
tnom = 27
temp = 27
method = modified trap
X1:c3: Increased Cpar to 1e-12
Direct Newton iteration for .op point succeeded.
Total elapsed time: 5.773 seconds.

